# generated using pymatgen
data_BaN2
_symmetry_space_group_name_H-M   C2/c
_cell_length_a   7.26094389
_cell_length_b   4.48389554
_cell_length_c   7.33778644
_cell_angle_alpha   90.00000000
_cell_angle_beta   105.07714053
_cell_angle_gamma   90.00000000
_symmetry_Int_Tables_number   15
_chemical_formula_structural   BaN2
_chemical_formula_sum   'Ba4 N8'
_cell_volume   230.67488740
_cell_formula_units_Z   4
loop_
 _symmetry_equiv_pos_site_id
 _symmetry_equiv_pos_as_xyz
  1  'x, y, z'
  2  '-x, -y, -z'
  3  '-x, y, -z+1/2'
  4  'x, -y, z+1/2'
  5  'x+1/2, y+1/2, z'
  6  '-x+1/2, -y+1/2, -z'
  7  '-x+1/2, y+1/2, -z+1/2'
  8  'x+1/2, -y+1/2, z+1/2'
loop_
 _atom_site_type_symbol
 _atom_site_label
 _atom_site_symmetry_multiplicity
 _atom_site_fract_x
 _atom_site_fract_y
 _atom_site_fract_z
 _atom_site_occupancy
  Ba  Ba0  4  0.000000  0.211549  0.750000  1
  N  N1  8  0.203245  0.351744  0.454080  1
