# generated using pymatgen
data_TlSbTe2
_symmetry_space_group_name_H-M   C2/m
_cell_length_a   10.18433087
_cell_length_b   5.15373784
_cell_length_c   6.89929196
_cell_angle_alpha   90.00000000
_cell_angle_beta   121.41362518
_cell_angle_gamma   90.00000000
_symmetry_Int_Tables_number   12
_chemical_formula_structural   TlSbTe2
_chemical_formula_sum   'Tl2 Sb2 Te4'
_cell_volume   309.04780395
_cell_formula_units_Z   2
loop_
 _symmetry_equiv_pos_site_id
 _symmetry_equiv_pos_as_xyz
  1  'x, y, z'
  2  '-x, -y, -z'
  3  '-x, y, -z'
  4  'x, -y, z'
  5  'x+1/2, y+1/2, z'
  6  '-x+1/2, -y+1/2, -z'
  7  '-x+1/2, y+1/2, -z'
  8  'x+1/2, -y+1/2, z'
loop_
 _atom_site_type_symbol
 _atom_site_label
 _atom_site_symmetry_multiplicity
 _atom_site_fract_x
 _atom_site_fract_y
 _atom_site_fract_z
 _atom_site_occupancy
  Tl  Tl0  2  0.000000  0.000000  0.000000  1
  Sb  Sb1  2  0.000000  0.000000  0.500000  1
  Te  Te2  4  0.144263  0.500000  0.425607  1
