# generated using pymatgen
data_EuHfS3
_symmetry_space_group_name_H-M   Pnma
_cell_length_a   7.09714972
_cell_length_b   9.71806304
_cell_length_c   6.69049459
_cell_angle_alpha   90.00000000
_cell_angle_beta   90.00000000
_cell_angle_gamma   90.00000000
_symmetry_Int_Tables_number   62
_chemical_formula_structural   EuHfS3
_chemical_formula_sum   'Eu4 Hf4 S12'
_cell_volume   461.44708083
_cell_formula_units_Z   4
loop_
 _symmetry_equiv_pos_site_id
 _symmetry_equiv_pos_as_xyz
  1  'x, y, z'
  2  '-x, -y, -z'
  3  '-x+1/2, -y, z+1/2'
  4  'x+1/2, y, -z+1/2'
  5  'x+1/2, -y+1/2, -z+1/2'
  6  '-x+1/2, y+1/2, z+1/2'
  7  '-x, y+1/2, -z'
  8  'x, -y+1/2, z'
loop_
 _atom_site_type_symbol
 _atom_site_label
 _atom_site_symmetry_multiplicity
 _atom_site_fract_x
 _atom_site_fract_y
 _atom_site_fract_z
 _atom_site_occupancy
  Eu  Eu0  4  0.083989  0.250000  0.025949  1
  Hf  Hf1  4  0.000000  0.000000  0.500000  1
  S  S2  8  0.194352  0.552032  0.810974  1
  S  S3  4  0.021674  0.750000  0.397902  1
