# generated using pymatgen
data_ZrMnSi
_symmetry_space_group_name_H-M   Pnma
_cell_length_a   6.61438530
_cell_length_b   3.67474396
_cell_length_c   7.68129495
_cell_angle_alpha   90.00000000
_cell_angle_beta   90.00000000
_cell_angle_gamma   90.00000000
_symmetry_Int_Tables_number   62
_chemical_formula_structural   ZrMnSi
_chemical_formula_sum   'Zr4 Mn4 Si4'
_cell_volume   186.70287954
_cell_formula_units_Z   4
loop_
 _symmetry_equiv_pos_site_id
 _symmetry_equiv_pos_as_xyz
  1  'x, y, z'
  2  '-x, -y, -z'
  3  '-x+1/2, -y, z+1/2'
  4  'x+1/2, y, -z+1/2'
  5  'x+1/2, -y+1/2, -z+1/2'
  6  '-x+1/2, y+1/2, z+1/2'
  7  '-x, y+1/2, -z'
  8  'x, -y+1/2, z'
loop_
 _atom_site_type_symbol
 _atom_site_label
 _atom_site_symmetry_multiplicity
 _atom_site_fract_x
 _atom_site_fract_y
 _atom_site_fract_z
 _atom_site_occupancy
  Zr  Zr0  4  0.027608  0.250000  0.820773  1
  Mn  Mn1  4  0.138059  0.250000  0.435391  1
  Si  Si2  4  0.227203  0.750000  0.621605  1
