# generated using pymatgen
data_Fe4O7F
_symmetry_space_group_name_H-M   Cmcm
_cell_length_a   6.01619613
_cell_length_b   13.36829946
_cell_length_c   6.44156419
_cell_angle_alpha   90.00000000
_cell_angle_beta   90.00000000
_cell_angle_gamma   90.00000000
_symmetry_Int_Tables_number   63
_chemical_formula_structural   Fe4O7F
_chemical_formula_sum   'Fe16 O28 F4'
_cell_volume   518.07124785
_cell_formula_units_Z   4
loop_
 _symmetry_equiv_pos_site_id
 _symmetry_equiv_pos_as_xyz
  1  'x, y, z'
  2  '-x, -y, -z'
  3  '-x, -y, z+1/2'
  4  'x, y, -z+1/2'
  5  'x, -y, -z'
  6  '-x, y, z'
  7  '-x, y, -z+1/2'
  8  'x, -y, z+1/2'
  9  'x+1/2, y+1/2, z'
  10  '-x+1/2, -y+1/2, -z'
  11  '-x+1/2, -y+1/2, z+1/2'
  12  'x+1/2, y+1/2, -z+1/2'
  13  'x+1/2, -y+1/2, -z'
  14  '-x+1/2, y+1/2, z'
  15  '-x+1/2, y+1/2, -z+1/2'
  16  'x+1/2, -y+1/2, z+1/2'
loop_
 _atom_site_type_symbol
 _atom_site_label
 _atom_site_symmetry_multiplicity
 _atom_site_fract_x
 _atom_site_fract_y
 _atom_site_fract_z
 _atom_site_occupancy
  Fe  Fe0  8  0.242935  0.120173  0.250000  1
  Fe  Fe1  4  0.000000  0.119683  0.750000  1
  Fe  Fe2  4  0.000000  0.374812  0.250000  1
  O  O3  16  0.246796  0.626027  0.556798  1
  O  O4  4  0.000000  0.026935  0.250000  1
  O  O5  4  0.000000  0.218325  0.250000  1
  O  O6  4  0.000000  0.467703  0.750000  1
  F  F7  4  0.000000  0.276713  0.750000  1
